<?xml version="1.0" encoding="UTF-8"?>

<!-- generated on 2024-12-28 19:57:05 by Eclipse SUMO netedit Version 1.21.0
<neteditConfiguration xmlns:xsi="http://www.w3.org/2001/XMLSchema-instance" xsi:noNamespaceSchemaLocation="http://sumo.dlr.de/xsd/neteditConfiguration.xsd">

    <input>
        <sumocfg-file value="E:\Sumo\ProjetRL.sumocfg"/>
        <additional-files value="E:\Sumo\ProjetRL.add.xml"/>
        <route-files value="E:\Sumo\ProjetRL.rou.xml"/>
        <sumo-net-file value="E:\Sumo\ProjetRL.net.xml"/>
    </input>

    <output>
        <output-file value="E:\Sumo\ProjetRL.net.xml"/>
    </output>

    <processing>
        <offset.disable-normalization value="true"/>
    </processing>

    <junctions>
        <no-turnarounds value="true"/>
    </junctions>

    <netedit>
        <new-network value="false"/>
    </netedit>

</neteditConfiguration>
-->

<net version="1.20" junctionCornerDetail="5" limitTurnSpeed="5.50" xmlns:xsi="http://www.w3.org/2001/XMLSchema-instance" xsi:noNamespaceSchemaLocation="http://sumo.dlr.de/xsd/net_file.xsd">

    <location netOffset="0.00,0.00" convBoundary="-87.50,-67.10,91.80,5.55" origBoundary="10000000000.00,10000000000.00,-10000000000.00,-10000000000.00" projParameter="!"/>

    <edge id=":J12_0" function="internal">
        <lane id=":J12_0_0" index="0" speed="9.45" length="0.10" shape="11.79,-9.05 11.84,-9.01"/>
    </edge>
    <edge id=":J5_0" function="internal">
        <lane id=":J5_0_0" index="0" speed="7.59" length="5.13" shape="15.36,-5.44 16.38,-4.57 17.49,-3.95 18.67,-3.58 19.94,-3.45"/>
    </edge>
    <edge id=":J5_1" function="internal">
        <lane id=":J5_1_0" index="0" speed="20.00" length="5.15" shape="14.78,-0.18 19.94,-0.25"/>
        <lane id=":J5_1_1" index="1" speed="20.00" length="5.15" shape="14.81,3.02 19.94,2.95"/>
    </edge>
    <edge id=":J6_0" function="internal">
        <lane id=":J6_0_0" index="0" speed="20.00" length="8.00" shape="60.33,-0.25 68.31,-0.31"/>
        <lane id=":J6_0_1" index="1" speed="20.00" length="8.00" shape="60.33,2.95 68.35,2.89"/>
    </edge>

    <edge id="E3" from="J5" to="J6" priority="-1">
        <lane id="E3_0" index="0" speed="20.00" length="40.39" shape="19.94,-3.45 60.33,-3.45"/>
        <lane id="E3_1" index="1" speed="20.00" length="40.39" shape="19.94,-0.25 60.33,-0.25"/>
        <lane id="E3_2" index="2" speed="20.00" length="40.39" shape="19.94,2.95 60.33,2.95"/>
    </edge>
    <edge id="E5" from="J8" to="J5" priority="-1">
        <lane id="E5_0" index="0" speed="20.00" length="102.33" shape="-87.54,0.75 14.78,-0.18"/>
        <lane id="E5_1" index="1" speed="20.00" length="102.33" shape="-87.51,3.95 14.81,3.02"/>
    </edge>
    <edge id="E6" from="J6" to="J9" priority="-1">
        <lane id="E6_0" index="0" speed="20.00" length="23.43" shape="68.31,-0.31 91.73,-0.64"/>
        <lane id="E6_1" index="1" speed="20.00" length="23.43" shape="68.35,2.89 91.78,2.56"/>
    </edge>
    <edge id="E8" from="J11" to="J12" priority="-1">
        <lane id="E8_0" index="0" speed="5.00" length="86.61" shape="-51.41,-68.27 11.79,-9.05"/>
    </edge>
    <edge id="E9" from="J12" to="J5" priority="-1" shape="10.70,-7.88 20.20,1.73 22.41,4.55">
        <lane id="E9_0" index="0" speed="13.89" length="5.01" shape="11.84,-9.01 15.36,-5.44"/>
    </edge>

    <tlLogic id="J12" type="static" programID="0" offset="0">
        <phase duration="22" state="G"/>
        <phase duration="3"  state="y"/>
        <phase duration="5"  state="r"/>
    </tlLogic>

    <junction id="J11" type="dead_end" x="-52.50" y="-67.10" incLanes="" intLanes="" shape="-52.50,-67.10 -50.31,-69.44"/>
    <junction id="J12" type="traffic_light" x="10.70" y="-7.88" incLanes="E8_0" intLanes=":J12_0_0" shape="10.76,-7.82 13.03,-10.07 12.83,-10.27 10.64,-7.94">
        <request index="0" response="0" foes="0" cont="0"/>
    </junction>
    <junction id="J5" type="priority" x="22.41" y="4.55" incLanes="E9_0 E5_0 E5_1" intLanes=":J5_0_0 :J5_1_0 :J5_1_1" shape="19.94,4.55 19.94,-5.05 18.71,-5.21 18.14,-5.40 17.60,-5.67 17.10,-6.01 16.63,-6.44 14.09,-4.45 15.33,-2.98 15.57,-2.46 15.55,-2.09 15.28,-1.86 14.76,-1.78 14.82,4.62">
        <request index="0" response="000" foes="000" cont="0"/>
        <request index="1" response="000" foes="000" cont="0"/>
        <request index="2" response="000" foes="000" cont="0"/>
    </junction>
    <junction id="J6" type="priority" x="64.35" y="4.55" incLanes="E3_0 E3_1 E3_2" intLanes=":J6_0_0 :J6_0_1" shape="68.38,4.49 68.29,-1.91 65.27,-2.70 64.31,-3.46 63.34,-4.22 62.11,-4.82 60.33,-5.05 60.33,4.55">
        <request index="0" response="00" foes="00" cont="0"/>
        <request index="1" response="00" foes="00" cont="0"/>
    </junction>
    <junction id="J8" type="dead_end" x="-87.50" y="5.55" incLanes="" intLanes="" shape="-87.50,5.55 -87.56,-0.85"/>
    <junction id="J9" type="dead_end" x="91.80" y="4.16" incLanes="E6_0 E6_1" intLanes="" shape="91.71,-2.24 91.80,4.16"/>

    <connection from="E3" to="E6" fromLane="1" toLane="0" via=":J6_0_0" dir="s" state="M"/>
    <connection from="E3" to="E6" fromLane="2" toLane="1" via=":J6_0_1" dir="s" state="M"/>
    <connection from="E5" to="E3" fromLane="0" toLane="1" via=":J5_1_0" dir="s" state="M"/>
    <connection from="E5" to="E3" fromLane="1" toLane="2" via=":J5_1_1" dir="s" state="M"/>
    <connection from="E8" to="E9" fromLane="0" toLane="0" via=":J12_0_0" tl="J12" linkIndex="0" dir="s" state="O"/>
    <connection from="E9" to="E3" fromLane="0" toLane="0" via=":J5_0_0" dir="r" state="M"/>

    <connection from=":J12_0" to="E9" fromLane="0" toLane="0" dir="s" state="M"/>
    <connection from=":J5_0" to="E3" fromLane="0" toLane="0" dir="r" state="M"/>
    <connection from=":J5_1" to="E3" fromLane="0" toLane="1" dir="s" state="M"/>
    <connection from=":J5_1" to="E3" fromLane="1" toLane="2" dir="s" state="M"/>
    <connection from=":J6_0" to="E6" fromLane="0" toLane="0" dir="s" state="M"/>
    <connection from=":J6_0" to="E6" fromLane="1" toLane="1" dir="s" state="M"/>

</net>
